# File generated by Flopy version 3.5.0.dev0 on 05/31/2024 at 08:42:52.
BEGIN options
  XT3D_OFF
END options

BEGIN griddata
  alh
    OPEN/CLOSE  'C.dsp_alh.txt'  FACTOR  1.0
  ath1
    OPEN/CLOSE  'C.dsp_ath1.txt'  FACTOR  1.0
  atv
    OPEN/CLOSE  'C.dsp_atv.txt'  FACTOR  1.0
END griddata

