# File generated by Flopy version 3.5.0.dev0 on 05/31/2024 at 08:42:52.
BEGIN options
END options

BEGIN packages
  DIS6  Ca.dis  dis
  IC6  Ca.ic  ic
  SSM6  Ca.ssm  ssm
  ADV6  Ca.adv  adv
  DSP6  Ca.dsp  dsp
  MST6  Ca.mst  mst
  OC6  Ca.oc  oc
END packages

