# File generated by Flopy version 3.5.0.dev0 on 05/31/2024 at 08:42:52.
BEGIN options
END options

BEGIN packages
  DIS6  Charge.dis  dis
  IC6  Charge.ic  ic
  SSM6  Charge.ssm  ssm
  ADV6  Charge.adv  adv
  DSP6  Charge.dsp  dsp
  MST6  Charge.mst  mst
  OC6  Charge.oc  oc
END packages

