# File generated by Flopy version 3.5.0.dev0 on 05/31/2024 at 08:42:52.
BEGIN griddata
  strt
    OPEN/CLOSE  'Charge.ic_strt.txt'  FACTOR  1.0
END griddata

