# File generated by Flopy version 3.5.0.dev0 on 05/31/2024 at 08:42:52.
BEGIN options
  SAVE_FLOWS
  SAVE_SPECIFIC_DISCHARGE
  SAVE_SATURATION
END options

BEGIN griddata
  icelltype
    OPEN/CLOSE  'gwf.npf_icelltype.txt'  FACTOR  1
  k
    OPEN/CLOSE  'gwf.npf_k.txt'  FACTOR  1.0
  k33
    OPEN/CLOSE  'gwf.npf_k33.txt'  FACTOR  1.0
END griddata

