# File generated by Flopy version 3.5.0.dev0 on 05/31/2024 at 08:42:52.
BEGIN options
END options

BEGIN packages
  DIS6  Mg.dis  dis
  IC6  Mg.ic  ic
  SSM6  Mg.ssm  ssm
  ADV6  Mg.adv  adv
  DSP6  Mg.dsp  dsp
  MST6  Mg.mst  mst
  OC6  Mg.oc  oc
END packages

