# File generated by Flopy version 3.5.0.dev0 on 05/31/2024 at 08:42:52.
BEGIN options
  LENGTH_UNITS  meters
END options

BEGIN dimensions
  NLAY  1
  NROW  1
  NCOL  50
END dimensions

BEGIN griddata
  delr
    OPEN/CLOSE  'O.dis_delr.txt'  FACTOR  1.0
  delc
    OPEN/CLOSE  'O.dis_delc.txt'  FACTOR  1.0
  top
    OPEN/CLOSE  'O.dis_top.txt'  FACTOR  1.0
  botm
    OPEN/CLOSE  'O.dis_botm.txt'  FACTOR  1.0
  idomain
    OPEN/CLOSE  'O.dis_idomain.txt'  FACTOR  1
END griddata

