# File generated by Flopy version 3.5.0.dev0 on 05/31/2024 at 08:42:52.
BEGIN options
END options

BEGIN packages
  DIS6  O.dis  dis
  IC6  O.ic  ic
  SSM6  O.ssm  ssm
  ADV6  O.adv  adv
  DSP6  O.dsp  dsp
  MST6  O.mst  mst
  OC6  O.oc  oc
END packages

