SOLUTION 1 # [K,I,J] = 1,1,1
	units mol/kgw
	water 1.0
	temp 2.500000e+001
	pH 7.0 # comp 5
	pe 4.0  # comp 6
	C(4) 1e-18  # comp 1
	Ca 1e-18  # comp 2
	Cl 2.0e-3  # comp 3
	Mg 1.0e-3  # comp 4

END