[pytest]
addopts = -vvv --color=yes --cov=mf6rtm
log_cli = True
log_cli_level = INFO

markers =
    example: exercise scripts, tutorials, notebooks
    generation: tests for code generation utilities
    meta: tests run by other tests
    mf6: tests for MODFLOW 6 support
    regression: tests comparing multiple versions
    slow: tests not completing in a few seconds