# Link-MT3DMS file for MODFLOW-2000, generated by PMWIN
OUTPUT_FILE_NAME   MT3D.FLO
OUTPUT_FILE_UNIT   333
OUTPUT_FILE_HEADER Standard
OUTPUT_FILE_FORMAT Unformatted
