# File generated by Flopy version 3.5.0.dev0 on 05/10/2024 at 10:35:29.
BEGIN options
  SAVE_FLOWS
END options

BEGIN packages
  DIS6  gwf.dis  dis
  NPF6  gwf.npf  npf
  IC6  gwf.ic  ic
  CHD6  gwf.chd  chd
  WEL6  gwf.wel  wel
  OC6  gwf.oc  oc
END packages

