# File generated by Flopy version 3.5.0.dev0 on 05/10/2024 at 10:35:29.
BEGIN options
END options

BEGIN timing
  TDIS6  engesgaard1992.tdis
END timing

BEGIN models
  gwf6  gwf.nam  gwf
  gwt6  sodium.nam  sodium
END models

BEGIN exchanges
  GWF6-GWT6  sodium.gwfgwt  gwf  sodium
END exchanges

BEGIN solutiongroup  1
  ims6  gwf.ims  gwf
  ims6  sodium.ims  sodium
END solutiongroup  1

