# File generated by Flopy version 3.5.0.dev0 on 05/10/2024 at 10:35:29.
BEGIN options
END options

BEGIN packages
  DIS6  sodium.dis  dis
  IC6  sodium.ic  ic
  SSM6  sodium.ssm  ssm
  ADV6  sodium.adv  adv
  DSP6  sodium.dsp  dsp
  MST6  sodium.mst  mst
  OC6  sodium.oc  oc
END packages

