# File generated by Flopy version 3.5.0.dev0 on 05/10/2024 at 10:35:29.
BEGIN options
END options

BEGIN griddata
  porosity
    OPEN/CLOSE  'sodium.mst_porosity.txt'  FACTOR  1.0
END griddata

