# File generated by Flopy version 3.5.0.dev0 on 05/10/2024 at 10:35:29.
BEGIN options
  XT3D_OFF
END options

BEGIN griddata
  alh
    OPEN/CLOSE  'sodium.dsp_alh.txt'  FACTOR  1.0
  ath1
    OPEN/CLOSE  'sodium.dsp_ath1.txt'  FACTOR  1.0
  atv
    OPEN/CLOSE  'sodium.dsp_atv.txt'  FACTOR  1.0
END griddata

