# File generated by Flopy version 3.5.0.dev0 on 05/03/2024 at 10:57:49.
BEGIN options
  TIME_UNITS  days
END options

BEGIN dimensions
  NPER  1
END dimensions

BEGIN perioddata
       0.24000000  24       1.00000000
END perioddata

