# File generated by Flopy version 3.5.0.dev0 on 05/03/2024 at 10:57:49.
BEGIN options
END options

BEGIN griddata
  porosity
    OPEN/CLOSE  'chloride.mst_porosity.txt'  FACTOR  1.0
END griddata

