# File generated by Flopy version 3.5.0.dev0 on 05/03/2024 at 10:57:49.
BEGIN options
END options

BEGIN packages
  DIS6  chloride.dis  dis
  IC6  chloride.ic  ic
  SSM6  chloride.ssm  ssm
  ADV6  chloride.adv  adv
  DSP6  chloride.dsp  dsp
  MST6  chloride.mst  mst
  OC6  chloride.oc  oc
END packages

