# File generated by Flopy version 3.5.0.dev0 on 05/03/2024 at 10:57:49.
BEGIN options
  LENGTH_UNITS  meters
END options

BEGIN dimensions
  NLAY  1
  NROW  1
  NCOL  50
END dimensions

BEGIN griddata
  delr
    OPEN/CLOSE  'chloride.dis_delr.txt'  FACTOR  1.0
  delc
    OPEN/CLOSE  'chloride.dis_delc.txt'  FACTOR  1.0
  top
    OPEN/CLOSE  'chloride.dis_top.txt'  FACTOR  1.0
  botm
    OPEN/CLOSE  'chloride.dis_botm.txt'  FACTOR  1.0
  idomain
    OPEN/CLOSE  'chloride.dis_idomain.txt'  FACTOR  1
END griddata

