# File generated by Flopy version 3.5.0.dev0 on 05/03/2024 at 10:57:49.
BEGIN options
END options

BEGIN sources
  wel  aux  concentration
END sources

