# File generated by Flopy version 3.5.0.dev0 on 05/03/2024 at 10:57:49.
BEGIN options
  BUDGET  FILEOUT  gwf.cbb
  HEAD  FILEOUT  gwf.hds
  HEAD  PRINT_FORMAT  COLUMNS  10  WIDTH  15  DIGITS  6  GENERAL
END options

BEGIN period  1
  SAVE  HEAD  ALL
  SAVE  BUDGET  ALL
  PRINT  HEAD  LAST
  PRINT  BUDGET  LAST
END period  1

