# File generated by Flopy version 3.5.0.dev0 on 05/03/2024 at 10:57:49.
BEGIN options
END options

BEGIN timing
  TDIS6  1dtest.tdis
END timing

BEGIN models
  gwf6  gwf.nam  gwf
  gwt6  chloride.nam  chloride
END models

BEGIN exchanges
  GWF6-GWT6  1dtest.gwfgwt  gwf  chloride
END exchanges

BEGIN solutiongroup  1
  ims6  gwf.ims  gwf
  ims6  chloride.ims  chloride
END solutiongroup  1

