END
SOLUTION 177
	units  mol/kgw
	temp   25.0
	pH      9.83875
	pe     -6.63883
	water   1.00000
	Al      1.99023e-005
	C(4)    1.64137e-003
	Ca      6.51666e-003
	Cl      9.87418e-004
	Fe(2)   3.39507e-004
	Fe(3)   1.08652e-007
	K       1.00462e-004
	Mg      1.91368e-003
	Mn(2)   4.55486e-005
	Na      1.30421e-003
	S(-2)   2.37166e-003
	S(6)    7.03646e-003
	Si      3.23561e-003
EQUILIBRIUM_PHASES 177
	Calcite          0.000000e+000  5.638887e-002
	Fe(OH)3(a)       0.000000e+000  4.148821e-005
	Gibbsite         0.000000e+000  7.166849e-003
	Gypsum           0.000000e+000  0.000000e+000
	Siderite         0.000000e+000  1.771382e-002
	SiO2(a)          0.000000e+000  1.160192e+000
END
