# Basic package file for MODFLOW-2000, generated by PMWIN
FREE
         1         1(5I3)                       -1  2. IBOUND Array for Layer 1
  1  1  1  1  1
  1  1  1  1  1
  1  1  1  1  1
  1  1  1  1  1
  1  1  1  1  1
  1  1  1  1  1
  1  1  1  1  1
  1  1  1  1  1
  1  1  1  1  1
  1  1  1  1  1
  1  1  1  1  1
  1  1  1  1  1
  1  1  1  1  1
  1  1  1  1  1
  1  1  1  1  1
  1  1  1  1 -1
   -999.99
Constant               1    4. Starting Heads in Layer 1
