# Multiplier file for MODFLOW-2000, generated by PMWIN
 0 
