# WELL file for MODFLOW-2000 or higher, generated by PMWIN
#
PARAMETER 1  1 
 1  50 
WEL_0_1 Q  1 1 
         1         1         1        .007
 0  1 
WEL_0_1
