# File generated by Flopy version 3.5.0.dev0 on 07/12/2024 at 09:44:05.
BEGIN options
END options

BEGIN griddata
  porosity
    OPEN/CLOSE  'Al.mst_porosity.txt'  FACTOR  1.0
END griddata

