# File generated by Flopy version 3.5.0.dev0 on 07/04/2024 at 16:27:57.
BEGIN options
END options

BEGIN packages
  DIS6  Al.dis  dis
  IC6  Al.ic  ic
  CNC6  Al.cnc  cnc
  SSM6  Al.ssm  ssm
  ADV6  Al.adv  adv
  DSP6  Al.dsp  dsp
  MST6  Al.mst  mst
  OC6  Al.oc  oc
END packages

