# File generated by Flopy version 3.5.0.dev0 on 05/31/2024 at 13:58:12.
BEGIN options
  BUDGET  FILEOUT  Al.cbb
  CONCENTRATION  FILEOUT  Al.ucn
  CONCENTRATION  PRINT_FORMAT  COLUMNS  10  WIDTH  15  DIGITS  10  GENERAL
END options

BEGIN period  1
  SAVE  CONCENTRATION  ALL
  PRINT  CONCENTRATION  LAST
END period  1

