# File generated by Flopy version 3.5.0.dev0 on 07/12/2024 at 11:54:47.
BEGIN options
  PRINT_FLOWS
  SAVE_FLOWS
END options

BEGIN sources
    OPEN/CLOSE  'Al.ssm_sources.txt'
END sources

