# File generated by Flopy version 3.5.0.dev0 on 05/31/2024 at 14:35:03.
BEGIN options
END options

BEGIN griddata
  porosity
    OPEN/CLOSE  'C.mst_porosity.txt'  FACTOR  1.0
END griddata

