# File generated by Flopy version 3.5.0.dev0 on 05/31/2024 at 08:18:53.
BEGIN options
END options

BEGIN dimensions
  MAXBOUND  25
END dimensions

BEGIN period  1
    OPEN/CLOSE  'Ca.cnc_stress_period_data_1.txt'
END period  1

