# File generated by Flopy version 3.5.0.dev0 on 07/12/2024 at 09:44:05.
BEGIN options
END options

BEGIN packages
  DIS6  Ca.dis  dis
  IC6  Ca.ic  ic
  CNC6  Ca.cnc  cnc
  SSM6  Ca.ssm  ssm
  ADV6  Ca.adv  adv
  DSP6  Ca.dsp  dsp
  MST6  Ca.mst  mst
  OC6  Ca.oc  oc
END packages

