# File generated by Flopy version 3.5.0.dev0 on 05/31/2024 at 08:18:53.
BEGIN options
END options

BEGIN sources
    OPEN/CLOSE  'Ca.ssm_sources.txt'
END sources

