# File generated by Flopy version 3.5.0.dev0 on 07/04/2024 at 16:27:57.
BEGIN options
END options

BEGIN griddata
  porosity
    OPEN/CLOSE  'Charge.mst_porosity.txt'  FACTOR  1.0
END griddata

