# File generated by Flopy version 3.5.0.dev0 on 07/12/2024 at 11:54:47.
BEGIN options
END options

BEGIN packages
  DIS6  Charge.dis  dis
  IC6  Charge.ic  ic
  CNC6  Charge.cnc  cnc
  SSM6  Charge.ssm  ssm
  ADV6  Charge.adv  adv
  DSP6  Charge.dsp  dsp
  MST6  Charge.mst  mst
  OC6  Charge.oc  oc
END packages

