# File generated by Flopy version 3.5.0.dev0 on 06/08/2024 at 20:41:53.
BEGIN options
END options

BEGIN dimensions
  MAXBOUND  7
END dimensions

BEGIN period  1
    OPEN/CLOSE  'Cl.cnc_stress_period_data_1.txt'
END period  1

