# File generated by Flopy version 3.5.0.dev0 on 05/31/2024 at 15:05:31.
BEGIN options
END options

BEGIN packages
  DIS6  Cl.dis  dis
  IC6  Cl.ic  ic
  CNC6  Cl.cnc  cnc
  SSM6  Cl.ssm  ssm
  ADV6  Cl.adv  adv
  DSP6  Cl.dsp  dsp
  MST6  Cl.mst  mst
  OC6  Cl.oc  oc
END packages

