# File generated by Flopy version 3.5.0.dev0 on 07/12/2024 at 11:54:47.
BEGIN options
END options

BEGIN griddata
  porosity
    OPEN/CLOSE  'Fe.mst_porosity.txt'  FACTOR  1.0
END griddata

