# File generated by Flopy version 3.5.0.dev0 on 07/12/2024 at 11:54:47.
BEGIN options
END options

BEGIN packages
  DIS6  Fe.dis  dis
  IC6  Fe.ic  ic
  CNC6  Fe.cnc  cnc
  SSM6  Fe.ssm  ssm
  ADV6  Fe.adv  adv
  DSP6  Fe.dsp  dsp
  MST6  Fe.mst  mst
  OC6  Fe.oc  oc
END packages

