# File generated by Flopy version 3.5.0.dev0 on 07/12/2024 at 11:54:47.
BEGIN options
  auxiliary  H  O  Charge  Al  C  Ca  Cl  Fe  K  Mg  Mn  Na  S  Si
END options

BEGIN dimensions
  MAXBOUND  20
END dimensions

BEGIN period  1
    OPEN/CLOSE  'gwf.chd_stress_period_data_1.txt'
END period  1

