# File generated by Flopy version 3.5.0.dev0 on 05/31/2024 at 14:35:03.
BEGIN options
  auxiliary  H  O  Charge  Al  C  Ca  Cl  Fe  K  Mg  Mn  Na  S  Si
END options

BEGIN dimensions
  MAXBOUND  3
END dimensions

BEGIN period  1
    OPEN/CLOSE  'gwf.chdtail_stress_period_data_1.txt'
END period  1

