# File generated by Flopy version 3.5.0.dev0 on 05/31/2024 at 15:05:31.
BEGIN options
END options

BEGIN dimensions
  MAXBOUND  17
END dimensions

BEGIN period  1
    OPEN/CLOSE  'gwf.chd_stress_period_data_1.txt'
END period  1

