# File generated by Flopy version 3.5.0.dev0 on 07/12/2024 at 11:54:47.
BEGIN options
  PRINT_OPTION  summary
  COMPLEXITY  complex
END options

BEGIN nonlinear
  OUTER_DVCLOSE  1.00000000E-06
  OUTER_MAXIMUM  300
  UNDER_RELAXATION  none
END nonlinear

BEGIN linear
  INNER_MAXIMUM  600
  INNER_DVCLOSE  1.00000000E-06
  inner_rclose  1.00000000E-06
  LINEAR_ACCELERATION  cg
  RELAXATION_FACTOR       1.00000000
  SCALING_METHOD  none
  REORDERING_METHOD  none
END linear

