# File generated by Flopy version 3.5.0.dev0 on 07/12/2024 at 09:44:05.
BEGIN options
  PRINT_FLOWS
  SAVE_FLOWS
END options

BEGIN sources
    OPEN/CLOSE  'H.ssm_sources.txt'
END sources

