# File generated by Flopy version 3.5.0.dev0 on 05/31/2024 at 15:05:31.
BEGIN options
END options

BEGIN sources
    OPEN/CLOSE  'H.ssm_sources.txt'
END sources

