# File generated by Flopy version 3.5.0.dev0 on 05/31/2024 at 15:05:31.
BEGIN options
END options

BEGIN griddata
  porosity
    OPEN/CLOSE  'Mg.mst_porosity.txt'  FACTOR  1.0
END griddata

