# File generated by Flopy version 3.5.0.dev0 on 07/04/2024 at 16:27:57.
BEGIN options
  PRINT_FLOWS
  SAVE_FLOWS
END options

BEGIN sources
    OPEN/CLOSE  'Mg.ssm_sources.txt'
END sources

