# File generated by Flopy version 3.5.0.dev0 on 05/31/2024 at 13:58:12.
BEGIN options
END options

BEGIN dimensions
  MAXBOUND  7
END dimensions

BEGIN period  1
    OPEN/CLOSE  'Mn.cnc_stress_period_data_1.txt'
END period  1

