# File generated by Flopy version 3.5.0.dev0 on 07/12/2024 at 15:45:50.
BEGIN options
  LENGTH_UNITS  meters
END options

BEGIN dimensions
  NLAY  10
  NROW  1
  NCOL  25
END dimensions

BEGIN griddata
  delr
    OPEN/CLOSE  'Mn.dis_delr.txt'  FACTOR  1.0
  delc
    OPEN/CLOSE  'Mn.dis_delc.txt'  FACTOR  1.0
  top
    OPEN/CLOSE  'Mn.dis_top.txt'  FACTOR  1.0
  botm  LAYERED
    OPEN/CLOSE  'Mn.dis_botm_layer1.txt'  FACTOR  1.0
    OPEN/CLOSE  'Mn.dis_botm_layer2.txt'  FACTOR  1.0
    OPEN/CLOSE  'Mn.dis_botm_layer3.txt'  FACTOR  1.0
    OPEN/CLOSE  'Mn.dis_botm_layer4.txt'  FACTOR  1.0
    OPEN/CLOSE  'Mn.dis_botm_layer5.txt'  FACTOR  1.0
    OPEN/CLOSE  'Mn.dis_botm_layer6.txt'  FACTOR  1.0
    OPEN/CLOSE  'Mn.dis_botm_layer7.txt'  FACTOR  1.0
    OPEN/CLOSE  'Mn.dis_botm_layer8.txt'  FACTOR  1.0
    OPEN/CLOSE  'Mn.dis_botm_layer9.txt'  FACTOR  1.0
    OPEN/CLOSE  'Mn.dis_botm_layer10.txt'  FACTOR  1.0
  idomain  LAYERED
    OPEN/CLOSE  'Mn.dis_idomain_layer1.txt'  FACTOR  1
    OPEN/CLOSE  'Mn.dis_idomain_layer2.txt'  FACTOR  1
    OPEN/CLOSE  'Mn.dis_idomain_layer3.txt'  FACTOR  1
    OPEN/CLOSE  'Mn.dis_idomain_layer4.txt'  FACTOR  1
    OPEN/CLOSE  'Mn.dis_idomain_layer5.txt'  FACTOR  1
    OPEN/CLOSE  'Mn.dis_idomain_layer6.txt'  FACTOR  1
    OPEN/CLOSE  'Mn.dis_idomain_layer7.txt'  FACTOR  1
    OPEN/CLOSE  'Mn.dis_idomain_layer8.txt'  FACTOR  1
    OPEN/CLOSE  'Mn.dis_idomain_layer9.txt'  FACTOR  1
    OPEN/CLOSE  'Mn.dis_idomain_layer10.txt'  FACTOR  1
END griddata

