# File generated by Flopy version 3.5.0.dev0 on 07/12/2024 at 09:44:05.
BEGIN options
END options

BEGIN packages
  DIS6  Mn.dis  dis
  IC6  Mn.ic  ic
  CNC6  Mn.cnc  cnc
  SSM6  Mn.ssm  ssm
  ADV6  Mn.adv  adv
  DSP6  Mn.dsp  dsp
  MST6  Mn.mst  mst
  OC6  Mn.oc  oc
END packages

