# File generated by Flopy version 3.5.0.dev0 on 05/31/2024 at 08:18:53.
BEGIN options
  BUDGET  FILEOUT  Mn.cbb
  CONCENTRATION  FILEOUT  Mn.ucn
  CONCENTRATION  PRINT_FORMAT  COLUMNS  10  WIDTH  15  DIGITS  10  GENERAL
END options

BEGIN period  1
  SAVE  CONCENTRATION  ALL
  PRINT  CONCENTRATION  LAST
END period  1

