# File generated by Flopy version 3.5.0.dev0 on 05/31/2024 at 08:18:53.
BEGIN options
  SCHEME  tvd
END options

