# File generated by Flopy version 3.5.0.dev0 on 05/31/2024 at 14:35:03.
BEGIN options
END options

BEGIN packages
  DIS6  Na.dis  dis
  IC6  Na.ic  ic
  CNC6  Na.cnc  cnc
  SSM6  Na.ssm  ssm
  ADV6  Na.adv  adv
  DSP6  Na.dsp  dsp
  MST6  Na.mst  mst
  OC6  Na.oc  oc
END packages

