# File generated by Flopy version 3.5.0.dev0 on 06/08/2024 at 20:41:53.
BEGIN options
END options

BEGIN sources
    OPEN/CLOSE  'Na.ssm_sources.txt'
END sources

