# File generated by Flopy version 3.5.0.dev0 on 07/12/2024 at 11:54:47.
BEGIN options
  SCHEME  tvd
END options

