# File generated by Flopy version 3.5.0.dev0 on 07/04/2024 at 16:27:57.
BEGIN options
  PRINT_FLOWS
  SAVE_FLOWS
END options

BEGIN dimensions
  MAXBOUND  7
END dimensions

BEGIN period  1
    OPEN/CLOSE  'O.cnc_stress_period_data_1.txt'
END period  1

