# File generated by Flopy version 3.5.0.dev0 on 06/08/2024 at 20:41:53.
BEGIN options
END options

BEGIN griddata
  porosity
    OPEN/CLOSE  'S.mst_porosity.txt'  FACTOR  1.0
END griddata

