# File generated by Flopy version 3.5.0.dev0 on 07/04/2024 at 16:27:57.
BEGIN options
END options

BEGIN packages
  DIS6  S.dis  dis
  IC6  S.ic  ic
  CNC6  S.cnc  cnc
  SSM6  S.ssm  ssm
  ADV6  S.adv  adv
  DSP6  S.dsp  dsp
  MST6  S.mst  mst
  OC6  S.oc  oc
END packages

