# File generated by Flopy version 3.5.0.dev0 on 07/12/2024 at 15:45:50.
BEGIN options
  PRINT_FLOWS
  SAVE_FLOWS
END options

BEGIN sources
    OPEN/CLOSE  'S.ssm_sources.txt'
END sources

