# File generated by Flopy version 3.5.0.dev0 on 05/31/2024 at 14:35:03.
BEGIN options
END options

BEGIN packages
  DIS6  Si.dis  dis
  IC6  Si.ic  ic
  CNC6  Si.cnc  cnc
  SSM6  Si.ssm  ssm
  ADV6  Si.adv  adv
  DSP6  Si.dsp  dsp
  MST6  Si.mst  mst
  OC6  Si.oc  oc
END packages

