# File generated by Flopy version 3.5.0.dev0 on 07/12/2024 at 15:45:50.
BEGIN options
  TIME_UNITS  days
END options

BEGIN dimensions
  NPER  1
END dimensions

BEGIN perioddata
    2000.00000000  200       1.00000000
END perioddata

