SOLUTION 1-50 # [K,I,J] = 1,1,1
	units mol/kgw
	water 1.0
	temp 2.500000e+001
	pH 9.910000e+000  # comp 5
	pe 4.000000e+000  # comp 6
	C(4) 1.230000e-004  # comp 1
	Ca 1.230000e-004  # comp 2
	Cl 0.000000e+000  # comp 3
	Mg 0.000000e+000  # comp 4
	
EQUILIBRIUM_PHASES 1-50
	Calcite 0.000000e+000 1.220625e-004 # comp 7
	Dolomite 0.000000e+000 0.000000e+000 # comp 8
END
